download/pglib-opf-master/pglib_opf_case162_ieee_dtc.m
%%%%%%%%%%%%%%%%%%%%%%%%%%%%%%%%%%%%%%%%%%%%%%%%%%%%%%%%%%%%%%%%%%%%%%%%%%%
%%%%                                                                  %%%%%
%%%%    IEEE PES Power Grid Library - Optimal Power Flow - v19.05     %%%%%
%%%%          (https://github.com/power-grid-lib/pglib-opf)           %%%%%
%%%%               Benchmark Group - Typical Operations               %%%%%
%%%%                         08 - May - 2019                          %%%%%
%%%%                                                                  %%%%%
%%%%%%%%%%%%%%%%%%%%%%%%%%%%%%%%%%%%%%%%%%%%%%%%%%%%%%%%%%%%%%%%%%%%%%%%%%%
%
%   Power flow data for IEEE 17-Generator Dynamic Test Case.
%   This data was converted from IEEE Common Data Format
%   (dd17cdf.txt) on 11-Jul-2014 by cdf2matp, rev. 2327
%   See end of file for warnings generated during conversion.
%
%   Converted from IEEE CDF file from:
%       http://www.ee.washington.edu/research/pstca/
%
%   Copyright (c) 1999 by Richard D. Christie, University of Washington
%   Electrical Engineering Licensed under the Creative Commons Attribution 4.0
%   International license, http://creativecommons.org/licenses/by/4.0/
%
%   CDF Header:
%   01/02/90 IEEE WORKING GROUP    100.0 1990 S 17-GEN  CASE
%
function mpc = pglib_opf_case162_ieee_dtc
mpc.version = '2';
mpc.baseMVA = 100.0;

%% bus data
%	bus_i	type	Pd	Qd	Gs	Bs	area	Vm	Va	baseKV	zone	Vmax	Vmin
mpc.bus = [
	1	 1	 0.0	 0.0	 0.0	 -100.0	 1	    1.00000	    0.00000	 345.0	 9	    1.06000	    0.94000;
	2	 1	 0.0	 0.0	 0.0	 0.0	 1	    1.00000	    0.00000	 345.0	 9	    1.06000	    0.94000;
	3	 1	 370.0	 96.9	 0.0	 0.0	 1	    1.00000	    0.00000	 161.0	 12	    1.06000	    0.94000;
	4	 1	 0.0	 0.0	 0.0	 0.0	 1	    1.00000	    0.00000	 345.0	 3	    1.06000	    0.94000;
	5	 1	 0.0	 0.0	 0.0	 -50.0	 1	    1.00000	    0.00000	 345.0	 8	    1.06000	    0.94000;
	6	 2	 0.0	 0.0	 0.0	 0.0	 1	    1.00000	    0.00000	 22.0	 9	    1.06000	    0.94000;
	7	 1	 0.0	 0.0	 0.0	 0.0	 1	    1.00000	    0.00000	 345.0	 9	    1.06000	    0.94000;
	8	 1	 398.0	 0.0	 0.0	 0.0	 1	    1.00000	    0.00000	 115.0	 12	    1.06000	    0.94000;
	9	 1	 0.0	 0.0	 0.0	 0.0	 1	    1.00000	    0.00000	 345.0	 8	    1.06000	    0.94000;
	10	 1	 226.0	 0.0	 0.0	 0.0	 1	    1.00000	    0.00000	 230.0	 12	    1.06000	    0.94000;
	11	 1	 0.0	 0.0	 0.0	 0.0	 1	    1.00000	    0.00000	 230.0	 10	    1.06000	    0.94000;
	12	 1	 193.0	 0.0	 0.0	 0.0	 1	    1.00000	    0.00000	 115.0	 12	    1.06000	    0.94000;
	13	 1	 204.0	 0.0	 0.0	 0.0	 1	    1.00000	    0.00000	 345.0	 12	    1.06000	    0.94000;
	14	 1	 381.0	 0.0	 0.0	 0.0	 1	    1.00000	    0.00000	 161.0	 12	    1.06000	    0.94000;
	15	 1	 -80.0	 0.0	 0.0	 0.0	 1	    1.00000	    0.00000	 230.0	 12	    1.06000	    0.94000;
	16	 1	 -54.2	 0.0	 0.0	 0.0	 1	    1.00000	    0.00000	 161.0	 12	    1.06000	    0.94000;
	17	 1	 -116.5	 0.0	 0.0	 0.0	 1	    1.00000	    0.00000	 161.0	 12	    1.06000	    0.94000;
	18	 1	 34.4	 11.67	 0.0	 0.0	 1	    1.00000	    0.00000	 161.0	 6	    1.06000	    0.94000;
	19	 1	 64.4	 0.0	 0.0	 0.0	 1	    1.00000	    0.00000	 161.0	 12	    1.06000	    0.94000;
	20	 1	 37.9	 12.5	 0.0	 0.0	 1	    1.00000	    0.00000	 69.0	 10	    1.06000	    0.94000;
	21	 1	 -69.8	 0.0	 0.0	 0.0	 1	    1.00000	    0.00000	 161.0	 12	    1.06000	    0.94000;
	22	 1	 17.39	 5.27	 0.0	 0.0	 1	    1.00000	    0.00000	 161.0	 6	    1.06000	    0.94000;
	23	 1	 63.5	 0.0	 0.0	 0.0	 1	    1.00000	    0.00000	 161.0	 12	    1.06000	    0.94000;
	24	 1	 0.0	 0.0	 0.0	 0.0	 1	    1.00000	    0.00000	 161.0	 6	    1.06000	    0.94000;
	25	 1	 0.0	 0.0	 0.0	 -50.0	 1	    1.00000	    0.00000	 345.0	 6	    1.06000	    0.94000;
	26	 1	 0.0	 0.0	 0.0	 -50.0	 1	    1.00000	    0.00000	 345.0	 1	    1.06000	    0.94000;
	27	 1	 324.0	 57.9	 0.0	 0.0	 1	    1.00000	    0.00000	 345.0	 12	    1.06000	    0.94000;
	28	 1	 38.47	 13.17	 0.0	 0.0	 1	    1.00000	    0.00000	 161.0	 6	    1.06000	    0.94000;
	29	 1	 28.31	 9.03	 0.0	 0.0	 1	    1.00000	    0.00000	 161.0	 6	    1.06000	    0.94000;
	30	 1	 101.2	 32.52	 0.0	 15.0	 1	    1.00000	    0.00000	 161.0	 6	    1.06000	    0.94000;
	31	 1	 72.5	 0.0	 0.0	 0.0	 1	    1.00000	    0.00000	 161.0	 12	    1.06000	    0.94000;
	32	 1	 52.7	 15.06	 0.0	 20.0	 1	    1.00000	    0.00000	 161.0	 6	    1.06000	    0.94000;
	33	 1	 45.17	 15.06	 0.0	 20.0	 1	    1.00000	    0.00000	 161.0	 6	    1.06000	    0.94000;
	34	 1	 14.18	 5.25	 0.0	 3.2	 1	    1.00000	    0.00000	 161.0	 1	    1.06000	    0.94000;
	35	 1	 54.48	 14.63	 0.0	 5.0	 1	    1.00000	    0.00000	 161.0	 1	    1.06000	    0.94000;
	36	 1	 31.96	 8.68	 0.0	 3.0	 1	    1.00000	    0.00000	 161.0	 2	    1.06000	    0.94000;
	37	 1	 0.0	 0.0	 0.0	 0.0	 1	    1.00000	    0.00000	 345.0	 11	    1.06000	    0.94000;
	38	 1	 14.76	 4.08	 0.0	 1.5	 1	    1.00000	    0.00000	 161.0	 2	    1.06000	    0.94000;
	39	 1	 0.0	 0.0	 0.0	 0.0	 1	    1.00000	    0.00000	 345.0	 6	    1.06000	    0.94000;
	40	 1	 52.88	 17.6	 0.0	 0.0	 1	    1.00000	    0.00000	 161.0	 1	    1.06000	    0.94000;
	41	 1	 39.2	 12.8	 0.0	 0.0	 1	    1.00000	    0.00000	 161.0	 1	    1.06000	    0.94000;
	42	 1	 0.0	 0.0	 0.0	 0.0	 1	    1.00000	    0.00000	 345.0	 2	    1.06000	    0.94000;
	43	 1	 41.5	 0.0	 0.0	 0.0	 1	    1.00000	    0.00000	 161.0	 12	    1.06000	    0.94000;
	44	 1	 16.32	 3.71	 0.0	 0.0	 1	    1.00000	    0.00000	 161.0	 2	    1.06000	    0.94000;
	45	 1	 20.02	 5.41	 0.0	 1.9	 1	    1.00000	    0.00000	 161.0	 2	    1.06000	    0.94000;
	46	 1	 65.31	 22.3	 0.0	 26.2	 1	    1.00000	    0.00000	 161.0	 10	    1.06000	    0.94000;
	47	 1	 4.82	 1.56	 0.0	 0.0	 1	    1.00000	    0.00000	 161.0	 2	    1.06000	    0.94000;
	48	 1	 33.76	 22.86	 0.0	 0.0	 1	    1.00000	    0.00000	 161.0	 10	    1.06000	    0.94000;
	49	 1	 6.82	 1.78	 0.0	 0.0	 1	    1.00000	    0.00000	 161.0	 2	    1.06000	    0.94000;
	50	 1	 99.7	 0.0	 0.0	 0.0	 1	    1.00000	    0.00000	 161.0	 12	    1.06000	    0.94000;
	51	 1	 0.0	 0.0	 0.0	 0.0	 1	    1.00000	    0.00000	 161.0	 3	    1.06000	    0.94000;
	52	 1	 218.2	 42.8	 0.0	 0.0	 1	    1.00000	    0.00000	 161.0	 3	    1.06000	    0.94000;
	53	 1	 0.0	 0.0	 0.0	 0.0	 1	    1.00000	    0.00000	 161.0	 10	    1.06000	    0.94000;
	54	 1	 70.34	 29.57	 0.0	 0.0	 1	    1.00000	    0.00000	 161.0	 10	    1.06000	    0.94000;
	55	 1	 0.0	 0.0	 0.0	 0.0	 1	    1.00000	    0.00000	 161.0	 1	    1.06000	    0.94000;
	56	 1	 25.29	 7.26	 0.0	 3.2	 1	    1.00000	    0.00000	 161.0	 7	    1.06000	    0.94000;
	57	 1	 48.48	 15.61	 0.0	 0.0	 1	    1.00000	    0.00000	 161.0	 1	    1.06000	    0.94000;
	58	 1	 0.0	 0.0	 0.0	 0.0	 1	    1.00000	    0.00000	 230.0	 10	    1.06000	    0.94000;
	59	 1	 84.43	 27.05	 0.0	 0.0	 1	    1.00000	    0.00000	 230.0	 10	    1.06000	    0.94000;
	60	 1	 244.0	 0.0	 0.0	 0.0	 1	    1.00000	    0.00000	 115.0	 12	    1.06000	    0.94000;
	61	 1	 0.0	 0.0	 0.0	 0.0	 1	    1.00000	    0.00000	 230.0	 10	    1.06000	    0.94000;
	62	 1	 -865.6	 0.0	 0.0	 0.0	 1	    1.00000	    0.00000	 230.0	 12	    1.06000	    0.94000;
	63	 1	 59.1	 0.0	 0.0	 0.0	 1	    1.00000	    0.00000	 230.0	 12	    1.06000	    0.94000;
	64	 1	 0.0	 0.0	 0.0	 0.0	 1	    1.00000	    0.00000	 345.0	 10	    1.06000	    0.94000;
	65	 1	 -26.3	 0.0	 0.0	 0.0	 1	    1.00000	    0.00000	 345.0	 12	    1.06000	    0.94000;
	66	 1	 0.0	 0.0	 0.0	 -50.0	 1	    1.00000	    0.00000	 345.0	 10	    1.06000	    0.94000;
	67	 1	 22.54	 7.03	 0.0	 6.0	 1	    1.00000	    0.00000	 161.0	 7	    1.06000	    0.94000;
	68	 1	 40.42	 12.68	 0.0	 12.0	 1	    1.00000	    0.00000	 161.0	 7	    1.06000	    0.94000;
	69	 1	 0.0	 0.0	 0.0	 0.0	 1	    1.00000	    0.00000	 161.0	 1	    1.06000	    0.94000;
	70	 1	 0.0	 0.0	 0.0	 0.0	 1	    1.00000	    0.00000	 161.0	 1	    1.06000	    0.94000;
	71	 1	 29.87	 11.93	 0.0	 12.0	 1	    1.00000	    0.00000	 161.0	 1	    1.06000	    0.94000;
	72	 1	 427.0	 0.0	 0.0	 0.0	 1	    1.00000	    0.00000	 161.0	 12	    1.06000	    0.94000;
	73	 2	 0.0	 0.0	 0.0	 0.0	 1	    1.00000	    0.00000	 20.0	 1	    1.06000	    0.94000;
	74	 1	 0.0	 0.0	 0.0	 0.0	 1	    1.00000	    0.00000	 345.0	 5	    1.06000	    0.94000;
	75	 1	 0.0	 0.0	 0.0	 -50.0	 1	    1.00000	    0.00000	 345.0	 8	    1.06000	    0.94000;
	76	 2	 0.0	 0.0	 0.0	 0.0	 1	    1.00000	    0.00000	 24.0	 1	    1.06000	    0.94000;
	77	 1	 26.41	 8.78	 0.0	 4.7	 1	    1.00000	    0.00000	 161.0	 1	    1.06000	    0.94000;
	78	 1	 79.12	 0.0	 0.0	 0.0	 1	    1.00000	    0.00000	 161.0	 5	    1.06000	    0.94000;
	79	 1	 0.0	 0.0	 0.0	 0.0	 1	    1.00000	    0.00000	 161.0	 5	    1.06000	    0.94000;
	80	 1	 15.76	 5.25	 0.0	 2.8	 1	    1.00000	    0.00000	 161.0	 1	    1.06000	    0.94000;
	81	 1	 50.88	 16.8	 0.0	 22.1	 1	    1.00000	    0.00000	 69.0	 1	    1.06000	    0.94000;
	82	 1	 62.28	 20.26	 0.0	 10.4	 1	    1.00000	    0.00000	 161.0	 1	    1.06000	    0.94000;
	83	 1	 0.0	 0.0	 0.0	 0.0	 1	    1.00000	    0.00000	 161.0	 1	    1.06000	    0.94000;
	84	 1	 37.9	 9.49	 0.0	 2.6	 1	    1.00000	    0.00000	 161.0	 2	    1.06000	    0.94000;
	85	 1	 40.52	 11.26	 0.0	 12.0	 1	    1.00000	    0.00000	 161.0	 1	    1.06000	    0.94000;
	86	 1	 50.73	 13.35	 0.0	 12.0	 1	    1.00000	    0.00000	 161.0	 2	    1.06000	    0.94000;
	87	 1	 16.91	 4.23	 0.0	 0.0	 1	    1.00000	    0.00000	 115.0	 2	    1.06000	    0.94000;
	88	 1	 60.6	 4.44	 0.0	 0.0	 1	    1.00000	    0.00000	 69.0	 4	    1.06000	    0.94000;
	89	 1	 0.0	 0.0	 0.0	 0.0	 1	    1.00000	    0.00000	 115.0	 2	    1.06000	    0.94000;
	90	 1	 50.21	 16.76	 0.0	 10.0	 1	    1.00000	    0.00000	 115.0	 2	    1.06000	    0.94000;
	91	 1	 51.24	 12.83	 0.0	 0.0	 1	    1.00000	    0.00000	 161.0	 2	    1.06000	    0.94000;
	92	 1	 36.12	 9.05	 0.0	 0.0	 1	    1.00000	    0.00000	 161.0	 2	    1.06000	    0.94000;
	93	 1	 103.8	 34.56	 0.0	 0.0	 1	    1.00000	    0.00000	 161.0	 2	    1.06000	    0.94000;
	94	 1	 164.0	 6.49	 0.0	 0.0	 1	    1.00000	    0.00000	 161.0	 5	    1.06000	    0.94000;
	95	 1	 117.2	 39.01	 0.0	 0.0	 1	    1.00000	    0.00000	 115.0	 2	    1.06000	    0.94000;
	96	 1	 119.2	 0.0	 0.0	 0.0	 1	    1.00000	    0.00000	 115.0	 2	    1.06000	    0.94000;
	97	 1	 22.84	 5.71	 0.0	 0.0	 1	    1.00000	    0.00000	 115.0	 2	    1.06000	    0.94000;
	98	 1	 151.1	 50.35	 0.0	 0.0	 1	    1.00000	    0.00000	 115.0	 2	    1.06000	    0.94000;
	99	 2	 0.0	 0.0	 0.0	 0.0	 1	    1.00000	    0.00000	 18.0	 2	    1.06000	    0.94000;
	100	 1	 23.21	 6.9	 0.0	 3.0	 1	    1.00000	    0.00000	 115.0	 2	    1.06000	    0.94000;
	101	 2	 0.0	 0.0	 0.0	 0.0	 1	    1.00000	    0.00000	 14.0	 2	    1.06000	    0.94000;
	102	 1	 16.54	 4.08	 0.0	 0.0	 1	    1.00000	    0.00000	 161.0	 2	    1.06000	    0.94000;
	103	 1	 322.0	 0.0	 0.0	 0.0	 1	    1.00000	    0.00000	 161.0	 12	    1.06000	    0.94000;
	104	 1	 31.52	 10.46	 0.0	 5.6	 1	    1.00000	    0.00000	 115.0	 2	    1.06000	    0.94000;
	105	 1	 24.84	 6.23	 0.0	 1.7	 1	    1.00000	    0.00000	 115.0	 2	    1.06000	    0.94000;
	106	 1	 0.0	 0.0	 0.0	 0.0	 1	    1.00000	    0.00000	 161.0	 4	    1.06000	    0.94000;
	107	 1	 35.41	 5.41	 0.0	 0.0	 1	    1.00000	    0.00000	 161.0	 4	    1.06000	    0.94000;
	108	 3	 0.0	 0.0	 0.0	 0.0	 1	    1.00000	    0.00000	 22.0	 2	    1.06000	    0.94000;
	109	 1	 0.0	 0.0	 0.0	 0.0	 1	    1.00000	    0.00000	 345.0	 5	    1.06000	    0.94000;
	110	 1	 0.0	 0.0	 0.0	 0.0	 1	    1.00000	    0.00000	 161.0	 3	    1.06000	    0.94000;
	111	 1	 65.41	 16.72	 0.0	 0.0	 1	    1.00000	    0.00000	 161.0	 3	    1.06000	    0.94000;
	112	 1	 0.0	 0.0	 0.0	 -50.0	 1	    1.00000	    0.00000	 345.0	 3	    1.06000	    0.94000;
	113	 1	 32.7	 0.0	 0.0	 0.0	 1	    1.00000	    0.00000	 161.0	 12	    1.06000	    0.94000;
	114	 2	 0.0	 0.0	 0.0	 0.0	 1	    1.00000	    0.00000	 14.0	 3	    1.06000	    0.94000;
	115	 1	 17.32	 3.34	 0.0	 0.0	 1	    1.00000	    0.00000	 161.0	 3	    1.06000	    0.94000;
	116	 1	 56.08	 11.2	 0.0	 0.0	 1	    1.00000	    0.00000	 161.0	 3	    1.06000	    0.94000;
	117	 1	 101.9	 20.06	 0.0	 0.0	 1	    1.00000	    0.00000	 161.0	 3	    1.06000	    0.94000;
	118	 2	 0.0	 0.0	 0.0	 0.0	 1	    1.00000	    0.00000	 14.0	 3	    1.06000	    0.94000;
	119	 1	 0.0	 0.0	 0.0	 0.0	 1	    1.00000	    0.00000	 345.0	 3	    1.06000	    0.94000;
	120	 1	 0.0	 0.0	 0.0	 0.0	 1	    1.00000	    0.00000	 345.0	 8	    1.06000	    0.94000;
	121	 2	 0.0	 0.0	 0.0	 0.0	 1	    1.00000	    0.00000	 24.0	 3	    1.06000	    0.94000;
	122	 1	 47.28	 9.36	 0.0	 0.0	 1	    1.00000	    0.00000	 161.0	 3	    1.06000	    0.94000;
	123	 1	 165.0	 0.0	 0.0	 0.0	 1	    1.00000	    0.00000	 161.0	 12	    1.06000	    0.94000;
	124	 1	 -571.0	 90.9	 0.0	 0.0	 1	    1.00000	    0.00000	 345.0	 12	    1.06000	    0.94000;
	125	 2	 2000.0	 0.0	 0.0	 0.0	 1	    1.00000	    0.00000	 345.0	 12	    1.06000	    0.94000;
	126	 1	 -467.0	 0.0	 0.0	 0.0	 1	    1.00000	    0.00000	 345.0	 12	    1.06000	    0.94000;
	127	 1	 -52.6	 0.0	 0.0	 0.0	 1	    1.00000	    0.00000	 345.0	 12	    1.06000	    0.94000;
	128	 1	 0.0	 0.0	 0.0	 0.0	 1	    1.00000	    0.00000	 345.0	 8	    1.06000	    0.94000;
	129	 1	 0.0	 0.0	 0.0	 0.0	 1	    1.00000	    0.00000	 345.0	 8	    1.06000	    0.94000;
	130	 2	 0.0	 0.0	 0.0	 0.0	 1	    1.00000	    0.00000	 22.0	 8	    1.06000	    0.94000;
	131	 2	 0.0	 0.0	 0.0	 0.0	 1	    1.00000	    0.00000	 18.0	 8	    1.06000	    0.94000;
	132	 1	 159.0	 0.0	 0.0	 0.0	 1	    1.00000	    0.00000	 161.0	 12	    1.06000	    0.94000;
	133	 1	 30.1	 6.02	 0.0	 0.0	 1	    1.00000	    0.00000	 69.0	 3	    1.06000	    0.94000;
	134	 1	 17.46	 3.34	 0.0	 0.0	 1	    1.00000	    0.00000	 161.0	 3	    1.06000	    0.94000;
	135	 1	 20.06	 4.01	 0.0	 0.0	 1	    1.00000	    0.00000	 69.0	 3	    1.06000	    0.94000;
	136	 1	 20.06	 4.01	 0.0	 0.0	 1	    1.00000	    0.00000	 69.0	 3	    1.06000	    0.94000;
	137	 1	 20.06	 4.01	 0.0	 0.0	 1	    1.00000	    0.00000	 69.0	 3	    1.06000	    0.94000;
	138	 1	 0.0	 0.0	 0.0	 0.0	 1	    1.00000	    0.00000	 69.0	 3	    1.06000	    0.94000;
	139	 1	 10.1	 2.01	 0.0	 0.0	 1	    1.00000	    0.00000	 69.0	 3	    1.06000	    0.94000;
	140	 1	 13.58	 2.68	 0.0	 0.0	 1	    1.00000	    0.00000	 69.0	 3	    1.06000	    0.94000;
	141	 1	 0.0	 0.0	 0.0	 0.0	 1	    1.00000	    0.00000	 161.0	 3	    1.06000	    0.94000;
	142	 1	 27.09	 5.35	 0.0	 0.0	 1	    1.00000	    0.00000	 69.0	 3	    1.06000	    0.94000;
	143	 1	 21.07	 4.01	 0.0	 0.0	 1	    1.00000	    0.00000	 69.0	 3	    1.06000	    0.94000;
	144	 1	 12.37	 2.01	 0.0	 0.0	 1	    1.00000	    0.00000	 69.0	 3	    1.06000	    0.94000;
	145	 1	 10.83	 2.21	 0.0	 0.0	 1	    1.00000	    0.00000	 69.0	 3	    1.06000	    0.94000;
	146	 1	 21.33	 4.01	 0.0	 0.0	 1	    1.00000	    0.00000	 69.0	 3	    1.06000	    0.94000;
	147	 1	 216.4	 42.8	 0.0	 0.0	 1	    1.00000	    0.00000	 161.0	 3	    1.06000	    0.94000;
	148	 1	 120.0	 24.0	 0.0	 0.0	 1	    1.00000	    0.00000	 69.0	 3	    1.06000	    0.94000;
	149	 1	 0.0	 0.0	 0.0	 0.0	 1	    1.00000	    0.00000	 161.0	 1	    1.06000	    0.94000;
	150	 1	 4.8	 1.6	 0.0	 0.0	 1	    1.00000	    0.00000	 161.0	 1	    1.06000	    0.94000;
	151	 1	 24.0	 8.0	 0.0	 0.0	 1	    1.00000	    0.00000	 161.0	 1	    1.06000	    0.94000;
	152	 1	 6.0	 0.0	 0.0	 0.0	 1	    1.00000	    0.00000	 161.0	 12	    1.06000	    0.94000;
	153	 1	 4.0	 1.6	 0.0	 0.0	 1	    1.00000	    0.00000	 69.0	 1	    1.06000	    0.94000;
	154	 1	 28.0	 9.6	 0.0	 6.0	 1	    1.00000	    0.00000	 69.0	 1	    1.06000	    0.94000;
	155	 1	 12.0	 4.0	 0.0	 0.0	 1	    1.00000	    0.00000	 69.0	 1	    1.06000	    0.94000;
	156	 1	 8.0	 2.4	 0.0	 0.0	 1	    1.00000	    0.00000	 69.0	 1	    1.06000	    0.94000;
	157	 1	 32.0	 10.4	 0.0	 0.0	 1	    1.00000	    0.00000	 69.0	 1	    1.06000	    0.94000;
	158	 1	 16.0	 5.6	 0.0	 3.0	 1	    1.00000	    0.00000	 69.0	 1	    1.06000	    0.94000;
	159	 1	 8.0	 2.4	 0.0	 0.0	 1	    1.00000	    0.00000	 69.0	 1	    1.06000	    0.94000;
	160	 1	 14.4	 4.8	 0.0	 3.0	 1	    1.00000	    0.00000	 69.0	 1	    1.06000	    0.94000;
	161	 1	 32.0	 10.4	 0.0	 0.0	 1	    1.00000	    0.00000	 161.0	 1	    1.06000	    0.94000;
	162	 1	 20.0	 6.4	 0.0	 0.0	 1	    1.00000	    0.00000	 161.0	 1	    1.06000	    0.94000;
];

%% generator data
%	bus	Pg	Qg	Qmax	Qmin	Vg	mBase	status	Pmax	Pmin
mpc.gen = [
	6	 573.5	 100.0	 400.0	 -200.0	 1.0	 100.0	 1	 1147	 0.0; % COW
	73	 225.5	 77.0	 226.0	 -72.0	 1.0	 100.0	 1	 451	 0.0; % NG
	76	 563.5	 197.0	 564.0	 -170.0	 1.0	 100.0	 1	 1127	 0.0; % COW
	99	 183.0	 7.5	 75.6	 -60.6	 1.0	 100.0	 1	 366	 0.0; % COW
	101	 55.0	 7.1	 38.6	 -24.4	 1.0	 100.0	 1	 110	 0.0; % NG
	108	 559.5	 0.0	 560.0	 -560.0	 1.0	 100.0	 1	 1119	 0.0; % NUC
	114	 154.0	 4.0	 33.0	 -25.0	 1.0	 100.0	 1	 308	 0.0; % COW
	118	 227.5	 28.0	 100.0	 -44.0	 1.0	 100.0	 1	 455	 0.0; % NG
	121	 350.0	 65.0	 250.0	 -120.0	 1.0	 100.0	 1	 700	 0.0; % NG
	125	 1263.0	 82.0	 1263.0	 -1099.0	 1.0	 100.0	 1	 2526	 0.0; % NUC
	130	 796.5	 72.0	 288.0	 -144.0	 1.0	 100.0	 1	 1593	 0.0; % COW
	131	 565.0	 27.5	 320.0	 -265.0	 1.0	 100.0	 1	 1130	 0.0; % COW
];

%% generator cost data
%	2	startup	shutdown	n	c(n-1)	...	c0
mpc.gencost = [
	2	 0.0	 0.0	 3	   0.000000	  23.532556	   0.000000; % COW
	2	 0.0	 0.0	 3	   0.000000	  30.409326	   0.000000; % NG
	2	 0.0	 0.0	 3	   0.000000	  19.040386	   0.000000; % COW
	2	 0.0	 0.0	 3	   0.000000	  19.686835	   0.000000; % COW
	2	 0.0	 0.0	 3	   0.000000	  38.489977	   0.000000; % NG
	2	 0.0	 0.0	 3	   0.000000	   6.111723	   0.000000; % NUC
	2	 0.0	 0.0	 3	   0.000000	  22.934184	   0.000000; % COW
	2	 0.0	 0.0	 3	   0.000000	  29.747826	   0.000000; % NG
	2	 0.0	 0.0	 3	   0.000000	  20.377006	   0.000000; % NG
	2	 0.0	 0.0	 3	   0.000000	   7.373082	   0.000000; % NUC
	2	 0.0	 0.0	 3	   0.000000	  15.234482	   0.000000; % COW
	2	 0.0	 0.0	 3	   0.000000	  11.354352	   0.000000; % COW
];

%% branch data
%	fbus	tbus	r	x	b	rateA	rateB	rateC	ratio	angle	status	angmin	angmax
mpc.branch = [
	1	 2	 0.0035	 0.0321	 0.5438	 613	 613	 613	 0.0	 0.0	 1	 -30.0	 30.0;
	1	 3	 0.0034	 0.0326	 0.7224	 895	 895	 895	 1.0	 0.0	 1	 -30.0	 30.0;
	1	 4	 0.0064	 0.0621	 0.987	 470	 470	 470	 0.0	 0.0	 1	 -30.0	 30.0;
	1	 5	 0.0011	 0.0119	 0.2012	 663	 663	 663	 0.0	 0.0	 1	 -30.0	 30.0;
	1	 6	 0.0	 0.0133	 0.0	 900.0	 2206	 2206	 1.0519	 0.0	 1	 -30.0	 30.0;
	2	 7	 0.0014	 0.0125	 0.2122	 605	 605	 605	 0.0	 0.0	 1	 -30.0	 30.0;
	2	 13	 0.0046	 0.0417	 0.7058	 610	 610	 610	 0.0	 0.0	 1	 -30.0	 30.0;
	3	 14	 0.2361	 1.0122	 0.0	 29	 29	 29	 0.0	 0.0	 1	 -30.0	 30.0;
	3	 50	 0.0389	 0.1699	 0.0	 169	 169	 169	 0.0	 0.0	 1	 -30.0	 30.0;
	3	 103	 0.1074	 1.8023	 0.0	 17	 17	 17	 0.0	 0.0	 1	 -30.0	 30.0;
	3	 123	 0.2883	 1.6719	 0.0	 18	 18	 18	 0.0	 0.0	 1	 -30.0	 30.0;
	3	 124	 0.014	 0.6483	 0.0	 46	 46	 46	 1.0	 0.0	 1	 -30.0	 30.0;
	3	 125	 0.0084	 0.1139	 0.0	 257	 257	 257	 1.0	 0.0	 1	 -30.0	 30.0;
	4	 112	 0.0059	 0.0568	 0.925	 514	 514	 514	 0.0	 0.0	 1	 -30.0	 30.0;
	4	 115	 0.0	 0.0185	 0.0	 500.0	 1586	 1586	 1.0	 0.0	 1	 -30.0	 30.0;
	4	 119	 0.0014	 0.0119	 0.205	 591	 591	 591	 0.0	 0.0	 1	 -30.0	 30.0;
	5	 120	 0.0022	 0.0224	 0.3792	 644	 644	 644	 0.0	 0.0	 1	 -30.0	 30.0;
	5	 129	 0.0022	 0.0268	 0.4612	 702	 702	 702	 0.0	 0.0	 1	 -30.0	 30.0;
	5	 131	 0.0	 0.0127	 0.0	 710.0	 2310	 2310	 1.0249	 0.0	 1	 -30.0	 30.0;
	7	 8	 0.0004	 0.0189	 0.0	 672.0	 1552	 1552	 0.9751	 0.0	 1	 -30.0	 30.0;
	7	 9	 0.0017	 0.0169	 0.2872	 637	 637	 637	 0.0	 0.0	 1	 -30.0	 30.0;
	8	 10	 0.4591	 1.0703	 0.0	 26	 26	 26	 1.0	 0.0	 1	 -30.0	 30.0;
	8	 12	 0.0106	 0.0574	 0.0	 159	 159	 159	 0.0	 0.0	 1	 -30.0	 30.0;
	8	 13	 0.1274	 0.4784	 0.0	 60	 60	 60	 1.0	 0.0	 1	 -30.0	 30.0;
	8	 14	 0.0473	 0.3956	 0.0	 74	 74	 74	 1.0	 0.0	 1	 -30.0	 30.0;
	8	 15	 0.5035	 1.7433	 0.0	 17	 17	 17	 1.0	 0.0	 1	 -30.0	 30.0;
	8	 132	 0.0252	 0.288	 0.0	 102	 102	 102	 1.0	 0.0	 1	 -30.0	 30.0;
	9	 75	 0.0013	 0.015	 0.2682	 684	 684	 684	 0.0	 0.0	 1	 -30.0	 30.0;
	10	 11	 0.0051	 0.037	 0.0716	 366	 366	 366	 0.0	 0.0	 1	 -30.0	 30.0;
	10	 13	 0.1299	 0.622	 0.0	 47	 47	 47	 1.0	 0.0	 1	 -30.0	 30.0;
	10	 15	 0.1275	 0.7033	 0.0	 42	 42	 42	 0.0	 0.0	 1	 -30.0	 30.0;
	10	 60	 0.2525	 1.2242	 0.0	 24	 24	 24	 1.0	 0.0	 1	 -30.0	 30.0;
	11	 15	 0.0285	 0.1793	 0.3484	 162	 162	 162	 0.0	 0.0	 1	 -30.0	 30.0;
	11	 46	 0.0142	 0.1225	 0.1876	 238	 238	 238	 1.0	 0.0	 1	 -30.0	 30.0;
	11	 58	 0.017	 0.107	 0.2074	 271	 271	 271	 0.0	 0.0	 1	 -30.0	 30.0;
	11	 59	 0.0071	 0.0471	 0.0852	 350	 350	 350	 0.0	 0.0	 1	 -30.0	 30.0;
	12	 2	 0.0008	 0.0377	 0.0	 336.0	 778	 778	 1.0252	 0.0	 1	 -30.0	 30.0;
	12	 13	 0.1038	 0.3137	 0.0	 89	 89	 89	 1.0	 0.0	 1	 -30.0	 30.0;
	12	 14	 0.1598	 0.6415	 0.0	 45	 45	 45	 1.0	 0.0	 1	 -30.0	 30.0;
	12	 132	 0.4486	 1.5773	 0.0	 18	 18	 18	 1.0	 0.0	 1	 -30.0	 30.0;
	13	 15	 0.044	 0.3227	 0.0	 91	 91	 91	 1.0	 0.0	 1	 -30.0	 30.0;
	13	 62	 0.0098	 0.1221	 0.0	 240	 240	 240	 1.0	 0.0	 1	 -30.0	 30.0;
	14	 72	 0.0107	 0.0828	 0.0	 264	 264	 264	 0.0	 0.0	 1	 -30.0	 30.0;
	14	 113	 0.0063	 0.0382	 0.0	 235	 235	 235	 0.0	 0.0	 1	 -30.0	 30.0;
	14	 132	 0.0057	 0.0374	 0.0	 244	 244	 244	 0.0	 0.0	 1	 -30.0	 30.0;
	15	 58	 0.0115	 0.0732	 0.142	 344	 344	 344	 0.0	 0.0	 1	 -30.0	 30.0;
	15	 60	 0.3907	 1.6753	 0.0	 18	 18	 18	 1.0	 0.0	 1	 -30.0	 30.0;
	15	 62	 0.0084	 0.0588	 0.0	 359	 359	 359	 0.0	 0.0	 1	 -30.0	 30.0;
	15	 63	 0.1704	 1.4555	 0.0	 21	 21	 21	 0.0	 0.0	 1	 -30.0	 30.0;
	16	 17	 0.6017	 1.4373	 0.0	 19	 19	 19	 0.0	 0.0	 1	 -30.0	 30.0;
	16	 18	 0.0297	 0.107	 0.0546	 184	 184	 184	 0.0	 0.0	 1	 -30.0	 30.0;
	16	 27	 0.1574	 0.8871	 0.0	 33	 33	 33	 1.0	 0.0	 1	 -30.0	 30.0;
	16	 126	 0.1053	 0.5132	 0.0	 56	 56	 56	 1.0	 0.0	 1	 -30.0	 30.0;
	16	 127	 0.0958	 0.5276	 0.0	 55	 55	 55	 1.0	 0.0	 1	 -30.0	 30.0;
	17	 18	 0.0213	 0.1013	 0.0642	 209	 209	 209	 0.0	 0.0	 1	 -30.0	 30.0;
	17	 19	 0.2314	 0.7678	 0.0	 37	 37	 37	 0.0	 0.0	 1	 -30.0	 30.0;
	17	 21	 0.0471	 0.2665	 0.0	 109	 109	 109	 0.0	 0.0	 1	 -30.0	 30.0;
	17	 127	 0.0287	 0.2637	 0.0	 111	 111	 111	 1.0	 0.0	 1	 -30.0	 30.0;
	18	 30	 0.0207	 0.1088	 0.052	 220	 220	 220	 0.0	 0.0	 1	 -30.0	 30.0;
	18	 32	 0.0234	 0.122	 0.0582	 219	 219	 219	 0.0	 0.0	 1	 -30.0	 30.0;
	18	 37	 0.0	 0.0456	 0.0	 225.0	 644	 644	 1.1193	 0.0	 1	 -30.0	 30.0;
	19	 21	 0.3867	 1.9005	 0.0	 16	 16	 16	 0.0	 0.0	 1	 -30.0	 30.0;
	19	 38	 0.0239	 0.125	 0.0596	 219	 219	 219	 0.0	 0.0	 1	 -30.0	 30.0;
	19	 43	 0.0603	 0.2572	 0.0	 112	 112	 112	 0.0	 0.0	 1	 -30.0	 30.0;
	19	 127	 0.1074	 0.6809	 0.0	 43	 43	 43	 1.0	 0.0	 1	 -30.0	 30.0;
	20	 53	 0.0	 0.114	 0.0	 75.0	 258	 258	 1.0	 0.0	 1	 -30.0	 30.0;
	20	 157	 0.0113	 0.0279	 0.0004	 44.0	 66	 66	 0.0	 0.0	 1	 -30.0	 30.0;
	21	 22	 0.0312	 0.1629	 0.0778	 177	 177	 177	 0.0	 0.0	 1	 -30.0	 30.0;
	21	 127	 0.0105	 0.6414	 0.0	 46	 46	 46	 1.0	 0.0	 1	 -30.0	 30.0;
	22	 38	 0.014	 0.054	 0.025	 190	 190	 190	 0.0	 0.0	 1	 -30.0	 30.0;
	22	 39	 0.0	 0.0493	 0.0	 225.0	 595	 595	 1.1081	 0.0	 1	 -30.0	 30.0;
	22	 40	 0.0188	 0.0717	 0.0328	 189	 189	 189	 0.0	 0.0	 1	 -30.0	 30.0;
	22	 41	 0.0172	 0.085	 0.0404	 213	 213	 213	 0.0	 0.0	 1	 -30.0	 30.0;
	23	 24	 0.0174	 0.0511	 0.023	 167	 167	 167	 0.0	 0.0	 1	 -30.0	 30.0;
	23	 60	 0.066	 0.3093	 0.0	 93	 93	 93	 1.0	 0.0	 1	 -30.0	 30.0;
	24	 25	 0.0	 0.034	 0.0	 225.0	 863	 863	 1.0217	 0.0	 1	 -30.0	 30.0;
	24	 28	 0.0249	 0.0725	 0.0202	 166	 166	 166	 0.0	 0.0	 1	 -30.0	 30.0;
	24	 45	 0.0137	 0.0725	 0.034	 220	 220	 220	 0.0	 0.0	 1	 -30.0	 30.0;
	25	 26	 0.0059	 0.0583	 0.9302	 501	 501	 501	 0.0	 0.0	 1	 -30.0	 30.0;
	25	 27	 0.0044	 0.041	 0.8384	 618	 618	 618	 0.0	 0.0	 1	 -30.0	 30.0;
	26	 74	 0.0063	 0.0607	 0.93	 481	 481	 481	 0.0	 0.0	 1	 -30.0	 30.0;
	26	 75	 0.003	 0.0322	 0.5038	 661	 661	 661	 0.0	 0.0	 1	 -30.0	 30.0;
	26	 76	 0.0	 0.0082	 0.0	 1250.0	 3578	 3578	 1.04	 0.0	 1	 -30.0	 30.0;
	27	 31	 0.0101	 0.1273	 0.0	 230	 230	 230	 1.0	 0.0	 1	 -30.0	 30.0;
	27	 62	 0.0173	 0.581	 0.0	 51	 51	 51	 1.0	 0.0	 1	 -30.0	 30.0;
	27	 65	 0.0105	 0.2764	 0.0	 107	 107	 107	 0.0	 0.0	 1	 -30.0	 30.0;
	27	 125	 0.035	 1.6845	 0.0	 18	 18	 18	 0.0	 0.0	 1	 -30.0	 30.0;
	27	 126	 0.0022	 0.0225	 0.0	 646	 646	 646	 0.0	 0.0	 1	 -30.0	 30.0;
	27	 127	 0.1506	 1.4355	 0.0	 21	 21	 21	 0.0	 0.0	 1	 -30.0	 30.0;
	28	 29	 0.024	 0.0965	 0.0444	 193	 193	 193	 0.0	 0.0	 1	 -30.0	 30.0;
	29	 30	 0.038	 0.15	 0.0696	 177.0	 190	 190	 0.0	 0.0	 1	 -30.0	 30.0;
	29	 31	 0.0206	 0.0833	 0.0384	 194	 194	 194	 0.0	 0.0	 1	 -30.0	 30.0;
	30	 32	 0.0249	 0.1005	 0.0458	 194	 194	 194	 0.0	 0.0	 1	 -30.0	 30.0;
	32	 33	 0.0114	 0.0448	 0.0208	 191	 191	 191	 0.0	 0.0	 1	 -30.0	 30.0;
	33	 34	 0.028	 0.114	 0.052	 180.0	 195	 195	 0.0	 0.0	 1	 -30.0	 30.0;
	33	 35	 0.0216	 0.107	 0.051	 214	 214	 214	 0.0	 0.0	 1	 -30.0	 30.0;
	33	 36	 0.0102	 0.0536	 0.0254	 220	 220	 220	 0.0	 0.0	 1	 -30.0	 30.0;
	34	 40	 0.0397	 0.1517	 0.069	 188	 188	 188	 0.0	 0.0	 1	 -30.0	 30.0;
	34	 77	 0.0235	 0.0896	 0.0408	 189	 189	 189	 0.0	 0.0	 1	 -30.0	 30.0;
	35	 40	 0.0271	 0.1341	 0.0638	 179.0	 213	 213	 0.0	 0.0	 1	 -30.0	 30.0;
	36	 67	 0.0176	 0.0924	 0.044	 220	 220	 220	 0.0	 0.0	 1	 -30.0	 30.0;
	37	 39	 0.0039	 0.0379	 0.67	 630	 630	 630	 0.0	 0.0	 1	 -30.0	 30.0;
	37	 126	 0.004	 0.0381	 0.67	 624	 624	 624	 0.0	 0.0	 1	 -30.0	 30.0;
	37	 127	 0.004	 0.0403	 0.6832	 641	 641	 641	 0.0	 0.0	 1	 -30.0	 30.0;
	39	 42	 0.002	 0.0186	 0.32	 617	 617	 617	 0.0	 0.0	 1	 -30.0	 30.0;
	40	 81	 0.03	 0.345	 0.0038	 81.0	 85	 85	 1.0	 0.0	 1	 -30.0	 30.0;
	40	 82	 0.004	 0.019	 0.0108	 209	 209	 209	 0.0	 0.0	 1	 -30.0	 30.0;
	41	 81	 0.037	 0.372	 0.0058	 79	 79	 79	 1.0	 0.0	 1	 -30.0	 30.0;
	41	 83	 0.0052	 0.0256	 0.0124	 213	 213	 213	 0.0	 0.0	 1	 -30.0	 30.0;
	41	 84	 0.0057	 0.058	 0.0292	 301	 301	 301	 0.0	 0.0	 1	 -30.0	 30.0;
	42	 109	 0.0019	 0.0196	 0.333	 648	 648	 648	 0.0	 0.0	 1	 -30.0	 30.0;
	43	 44	 0.0188	 0.0751	 0.0348	 193	 193	 193	 0.0	 0.0	 1	 -30.0	 30.0;
	43	 103	 0.0324	 0.1702	 0.0	 170	 170	 170	 0.0	 0.0	 1	 -30.0	 30.0;
	43	 124	 0.0293	 0.1766	 0.0	 164	 164	 164	 1.0	 0.0	 1	 -30.0	 30.0;
	43	 125	 0.1449	 0.6509	 0.0	 44	 44	 44	 1.0	 0.0	 1	 -30.0	 30.0;
	44	 102	 0.013	 0.05	 0.0236	 180.0	 189	 189	 0.0	 0.0	 1	 -30.0	 30.0;
	44	 103	 0.0127	 0.051	 0.0244	 180.0	 193	 193	 0.0	 0.0	 1	 -30.0	 30.0;
	45	 54	 0.0108	 0.057	 0.0272	 220	 220	 220	 0.0	 0.0	 1	 -30.0	 30.0;
	46	 47	 0.031	 0.1378	 0.0622	 177.0	 203	 203	 0.0	 0.0	 1	 -30.0	 30.0;
	47	 48	 0.0251	 0.1114	 0.0502	 177.0	 203	 203	 0.0	 0.0	 1	 -30.0	 30.0;
	47	 49	 0.003	 0.012	 0.0054	 193	 193	 193	 0.0	 0.0	 1	 -30.0	 30.0;
	48	 50	 0.0336	 0.166	 0.078	 174	 174	 174	 0.0	 0.0	 1	 -30.0	 30.0;
	48	 51	 0.042	 0.13	 0.057	 171	 171	 171	 0.0	 0.0	 1	 -30.0	 30.0;
	48	 52	 0.054	 0.168	 0.074	 167	 167	 167	 0.0	 0.0	 1	 -30.0	 30.0;
	49	 87	 0.014	 0.068	 0.0266	 423	 423	 423	 1.0	 0.0	 1	 -30.0	 30.0;
	50	 51	 0.03	 0.09	 0.041	 168	 168	 168	 0.0	 0.0	 1	 -30.0	 30.0;
	50	 123	 0.4071	 1.8543	 0.0	 16	 16	 16	 0.0	 0.0	 1	 -30.0	 30.0;
	50	 125	 0.1337	 0.6031	 0.0	 48	 48	 48	 1.0	 0.0	 1	 -30.0	 30.0;
	51	 141	 0.0323	 0.1	 0.0442	 171	 171	 171	 0.0	 0.0	 1	 -30.0	 30.0;
	52	 79	 0.0623	 0.2126	 0.094	 133	 133	 133	 0.0	 0.0	 1	 -30.0	 30.0;
	52	 106	 0.0231	 0.0717	 0.0314	 171	 171	 171	 0.0	 0.0	 1	 -30.0	 30.0;
	52	 116	 0.006	 0.0487	 0.0256	 270	 270	 270	 0.0	 0.0	 1	 -30.0	 30.0;
	52	 117	 0.0117	 0.0493	 0.023	 198	 198	 198	 0.0	 0.0	 1	 -30.0	 30.0;
	52	 118	 0.0	 0.052	 0.0	 200.0	 565	 565	 1.0429	 0.0	 1	 -30.0	 30.0;
	53	 11	 0.0005	 0.02	 0.0	 375.0	 1467	 1467	 1.0	 0.0	 1	 -30.0	 30.0;
	53	 54	 0.0275	 0.1961	 0.0956	 149	 149	 149	 0.0	 0.0	 1	 -30.0	 30.0;
	53	 55	 0.0005	 0.0026	 0.0022	 219	 219	 219	 0.0	 0.0	 1	 -30.0	 30.0;
	54	 56	 0.0174	 0.091	 0.043	 219	 219	 219	 0.0	 0.0	 1	 -30.0	 30.0;
	54	 57	 0.025	 0.1237	 0.0588	 213	 213	 213	 0.0	 0.0	 1	 -30.0	 30.0;
	55	 57	 0.0462	 0.1763	 0.0802	 161	 161	 161	 0.0	 0.0	 1	 -30.0	 30.0;
	55	 149	 0.0153	 0.0671	 0.0312	 202	 202	 202	 0.0	 0.0	 1	 -30.0	 30.0;
	55	 162	 0.004	 0.0189	 0.0098	 209	 209	 209	 0.0	 0.0	 1	 -30.0	 30.0;
	56	 67	 0.017	 0.0894	 0.0424	 220	 220	 220	 0.0	 0.0	 1	 -30.0	 30.0;
	57	 80	 0.0272	 0.1037	 0.0472	 180.0	 189	 189	 0.0	 0.0	 1	 -30.0	 30.0;
	58	 61	 0.0133	 0.1018	 0.1842	 276.0	 286	 286	 0.0	 0.0	 1	 -30.0	 30.0;
	59	 61	 0.0106	 0.0706	 0.121	 351	 351	 351	 0.0	 0.0	 1	 -30.0	 30.0;
	60	 61	 0.0027	 0.0653	 -0.0022	 100.0	 449	 449	 1.0252	 0.0	 1	 -30.0	 30.0;
	60	 61	 0.002	 0.0393	 0.0	 200.0	 746	 746	 1.0252	 0.0	 1	 -30.0	 30.0;
	60	 62	 0.3674	 0.964	 0.0	 29	 29	 29	 1.0	 0.0	 1	 -30.0	 30.0;
	60	 65	 0.1041	 0.4144	 0.0	 69	 69	 69	 1.0	 0.0	 1	 -30.0	 30.0;
	60	 126	 0.5367	 1.8295	 0.0	 16	 16	 16	 1.0	 0.0	 1	 -30.0	 30.0;
	61	 62	 0.0296	 0.2275	 0.3996	 128	 128	 128	 0.0	 0.0	 1	 -30.0	 30.0;
	61	 63	 0.0043	 0.0422	 0.0764	 345.0	 422	 422	 0.0	 0.0	 1	 -30.0	 30.0;
	62	 63	 0.0158	 0.1702	 0.0	 172	 172	 172	 0.0	 0.0	 1	 -30.0	 30.0;
	62	 65	 0.004	 0.074	 0.0	 396	 396	 396	 1.0	 0.0	 1	 -30.0	 30.0;
	62	 126	 0.0044	 0.2969	 0.0	 99	 99	 99	 1.0	 0.0	 1	 -30.0	 30.0;
	63	 65	 0.2409	 1.96	 0.0	 15	 15	 15	 1.0	 0.0	 1	 -30.0	 30.0;
	64	 65	 0.005	 0.0571	 0.9098	 512	 512	 512	 0.0	 0.0	 1	 -30.0	 30.0;
	64	 66	 0.0033	 0.0381	 0.6066	 684	 684	 684	 0.0	 0.0	 1	 -30.0	 30.0;
	65	 126	 0.0031	 0.1536	 0.0	 191	 191	 191	 0.0	 0.0	 1	 -30.0	 30.0;
	66	 11	 0.0	 0.0118	 0.0	 500.0	 2486	 2486	 1.0	 0.0	 1	 -30.0	 30.0;
	67	 68	 0.0193	 0.1013	 0.0482	 220	 220	 220	 0.0	 0.0	 1	 -30.0	 30.0;
	68	 69	 0.0068	 0.0353	 0.0168	 218	 218	 218	 0.0	 0.0	 1	 -30.0	 30.0;
	69	 77	 0.0098	 0.0374	 0.017	 189	 189	 189	 0.0	 0.0	 1	 -30.0	 30.0;
	69	 78	 0.0114	 0.0434	 0.0196	 180.0	 188	 188	 0.0	 0.0	 1	 -30.0	 30.0;
	69	 79	 0.0052	 0.0433	 0.022	 273	 273	 273	 0.0	 0.0	 1	 -30.0	 30.0;
	70	 73	 0.0	 0.0197	 0.0	 495.0	 1489	 1489	 1.0398	 0.0	 1	 -30.0	 30.0;
	70	 149	 0.0002	 0.0018	 0.001	 284	 284	 284	 0.0	 0.0	 1	 -30.0	 30.0;
	70	 149	 0.0002	 0.0018	 0.001	 284	 284	 284	 0.0	 0.0	 1	 -30.0	 30.0;
	71	 85	 0.0304	 0.1506	 0.0716	 191	 191	 191	 0.0	 0.0	 1	 -30.0	 30.0;
	71	 150	 0.0196	 0.097	 0.0462	 213	 213	 213	 0.0	 0.0	 1	 -30.0	 30.0;
	72	 113	 0.0022	 0.013	 0.0	 232	 232	 232	 0.0	 0.0	 1	 -30.0	 30.0;
	72	 132	 0.0028	 0.0168	 0.0	 234	 234	 234	 0.0	 0.0	 1	 -30.0	 30.0;
	72	 152	 0.0385	 0.18	 0.0	 160	 160	 160	 0.0	 0.0	 1	 -30.0	 30.0;
	74	 119	 0.0031	 0.031	 0.4822	 639	 639	 639	 0.0	 0.0	 1	 -30.0	 30.0;
	75	 128	 0.0008	 0.0087	 0.166	 665	 665	 665	 0.0	 0.0	 1	 -30.0	 30.0;
	75	 130	 0.0004	 0.0242	 0.0	 578.0	 1212	 1212	 1.0249	 0.0	 1	 -30.0	 30.0;
	78	 79	 0.0051	 0.0336	 0.0182	 245	 245	 245	 0.0	 0.0	 1	 -30.0	 30.0;
	78	 80	 0.0244	 0.093	 0.0422	 180.0	 189	 189	 0.0	 0.0	 1	 -30.0	 30.0;
	79	 74	 0.0	 0.018	 0.0	 500.0	 1630	 1630	 1.0248	 0.0	 1	 -30.0	 30.0;
	82	 83	 0.0053	 0.0249	 0.013	 208	 208	 208	 0.0	 0.0	 1	 -30.0	 30.0;
	84	 93	 0.0125	 0.0826	 0.0414	 245	 245	 245	 0.0	 0.0	 1	 -30.0	 30.0;
	85	 86	 0.0211	 0.1046	 0.0498	 214	 214	 214	 0.0	 0.0	 1	 -30.0	 30.0;
	86	 87	 0.028	 0.112	 0.0538	 255	 255	 255	 1.0	 0.0	 1	 -30.0	 30.0;
	86	 88	 0.044	 0.228	 0.109	 127	 127	 127	 1.0	 0.0	 1	 -30.0	 30.0;
	88	 96	 0.074	 0.25	 0.0142	 48.0	 113	 113	 1.0	 0.0	 1	 -30.0	 30.0;
	88	 106	 0.0079	 0.0468	 0.0232	 173.0	 619	 619	 1.0	 0.0	 1	 -30.0	 30.0;
	89	 86	 0.0	 0.057	 0.0	 90.0	 515	 515	 1.0252	 0.0	 1	 -30.0	 30.0;
	89	 90	 0.069	 0.134	 0.014	 69.0	 98	 98	 0.0	 0.0	 1	 -30.0	 30.0;
	90	 96	 0.1837	 0.359	 0.037	 73	 73	 73	 0.0	 0.0	 1	 -30.0	 30.0;
	91	 92	 0.0156	 0.0819	 0.0376	 220	 220	 220	 0.0	 0.0	 1	 -30.0	 30.0;
	91	 93	 0.0143	 0.0895	 0.045	 239	 239	 239	 0.0	 0.0	 1	 -30.0	 30.0;
	91	 94	 0.0145	 0.0957	 0.048	 245	 245	 245	 0.0	 0.0	 1	 -30.0	 30.0;
	92	 102	 0.015	 0.061	 0.0292	 194	 194	 194	 0.0	 0.0	 1	 -30.0	 30.0;
	93	 42	 0.0	 0.026	 0.0	 400.0	 1129	 1129	 1.0248	 0.0	 1	 -30.0	 30.0;
	93	 108	 0.0	 0.0154	 0.0	 600.0	 1905	 1905	 1.0503	 0.0	 1	 -30.0	 30.0;
	94	 103	 0.0227	 0.1333	 0.066	 217	 217	 217	 0.0	 0.0	 1	 -30.0	 30.0;
	94	 107	 0.0613	 0.1891	 0.0836	 148	 148	 148	 0.0	 0.0	 1	 -30.0	 30.0;
	94	 109	 0.0	 0.035	 0.0	 300.0	 839	 839	 1.0248	 0.0	 1	 -30.0	 30.0;
	95	 91	 0.0054	 0.0458	 -0.0036	 250.0	 637	 637	 1.02	 0.0	 1	 -30.0	 30.0;
...
];

% INFO    : === Translation Options ===
% INFO    : Phase Angle Bound:           30.0 (deg.)
% INFO    : Line Capacity Model:         stat
% INFO    : Gen Active Capacity Model:   stat
% INFO    : Gen Reactive Capacity Model: am50ag
% INFO    : Gen Active Cost Model:       stat
% INFO    : Setting Flat Start
% INFO    : Line Capacity PAB:           15.0 (deg.)
% WARNING : Unrecognized data matrix named mpc.busnames: data was ignored
% INFO    : 
% INFO    : === Generator Classification Notes ===
% INFO    : NUC    2   -    39.71
% INFO    : COW    6   -    42.43
% INFO    : NG     4   -    17.86
% INFO    : 
% INFO    : === Generator Active Capacity Stat Model Notes ===
% INFO    : Gen at bus 6 - COW	: Pg=794.0, Pmax=894.0 -> Pmax=1147   samples: 11
% INFO    : Gen at bus 73 - NG	: Pg=447.0, Pmax=547.0 -> Pmax=451   samples: 26
% INFO    : Gen at bus 76 - COW	: Pg=1055.0, Pmax=1155.0 -> Pmax=1127   samples: 29
% INFO    : Gen at bus 99 - COW	: Pg=130.9, Pmax=230.9 -> Pmax=366   samples: 3
% INFO    : Gen at bus 101 - NG	: Pg=82.0, Pmax=182.0 -> Pmax=110   samples: 2
% INFO    : Gen at bus 108 - NUC	: Pg=551.12, Pmax=1112.066 -> Pmax=1119   samples: 1
% INFO    : Gen at bus 114 - COW	: Pg=131.0, Pmax=231.0 -> Pmax=308   samples: 2
% INFO    : Gen at bus 118 - NG	: Pg=173.0, Pmax=273.0 -> Pmax=455   samples: 11
% WARNING : Failed to find a generator capacity within (620.0-3100.0) after 100 samples, using percent increase model
% INFO    : Gen at bus 121 - NG	: Pg=620.0, Pmax=720.0 -> Pmax=700   samples: 100
% WARNING : Failed to find a generator capacity within (2388.0-11940.0) after 100 samples, using percent increase model
% INFO    : Gen at bus 125 - NUC	: Pg=2388.0, Pmax=2488.0 -> Pmax=2526   samples: 100
% INFO    : Gen at bus 130 - COW	: Pg=455.0, Pmax=555.0 -> Pmax=1593   samples: 11
% INFO    : Gen at bus 131 - COW	: Pg=575.0, Pmax=675.0 -> Pmax=1130   samples: 10
% INFO    : 
% INFO    : === Generator Reactive Capacity Atmost Max 50 Percent Active Model Notes ===
% INFO    : Gen at bus 73 - NG	: Pmax 451.0, Qmin -72.0, Qmax 267.0 -> Qmin -72.0, Qmax 226.0
% INFO    : Gen at bus 76 - COW	: Pmax 1127.0, Qmin -170.0, Qmax 605.0 -> Qmin -170.0, Qmax 564.0
% INFO    : Gen at bus 108 - NUC	: Pmax 1119.0, Qmin -9999.0, Qmax 9999.0 -> Qmin -560.0, Qmax 560.0
% INFO    : Gen at bus 125 - NUC	: Pmax 2526.0, Qmin -1099.0, Qmax 9900.0 -> Qmin -1099.0, Qmax 1263.0
% INFO    : 
% INFO    : === Generator Active Cost Stat Model Notes ===
% INFO    : Updated Generator Cost: COW - 0.0 20.0 0.0125944584 -> 0 23.5325560156 0
% INFO    : Updated Generator Cost: NG - 0.0 20.0 0.0223713647 -> 0 30.4093257076 0
% INFO    : Updated Generator Cost: COW - 0.0 20.0 0.00947867299 -> 0 19.0403862759 0
% INFO    : Updated Generator Cost: COW - 0.0 20.0 0.076394194 -> 0 19.6868348722 0
% INFO    : Updated Generator Cost: NG - 0.0 20.0 0.12195122 -> 0 38.4899769041 0
% INFO    : Updated Generator Cost: NUC - 0.0 20.0 0.0181448686 -> 0 6.11172259161 0
% INFO    : Updated Generator Cost: COW - 0.0 20.0 0.0763358779 -> 0 22.9341837188 0
% INFO    : Updated Generator Cost: NG - 0.0 20.0 0.0578034682 -> 0 29.7478259439 0
% INFO    : Updated Generator Cost: NG - 0.0 20.0 0.0161290323 -> 0 20.3770059399 0
% INFO    : Updated Generator Cost: NUC - 0.0 20.0 0.00418760469 -> 0 7.37308180704 0
% INFO    : Updated Generator Cost: COW - 0.0 20.0 0.021978022 -> 0 15.234481799 0
% INFO    : Updated Generator Cost: COW - 0.0 20.0 0.0173913043 -> 0 11.3543520317 0
% INFO    : 
% INFO    : === Generator Bounds Update Notes ===
% INFO    : 
% INFO    : === Base KV Replacement Notes ===
% INFO    : 
% INFO    : === Transformer Setting Replacement Notes ===
% WARNING : Branch 1-3 connects two different voltage levels (345.0, 161.0), changing tap ratio 0.0 => 1.0
% WARNING : Branch 3-124 connects two different voltage levels (161.0, 345.0), changing tap ratio 0.0 => 1.0
% WARNING : Branch 3-125 connects two different voltage levels (161.0, 345.0), changing tap ratio 0.0 => 1.0
% WARNING : Branch 8-10 connects two different voltage levels (115.0, 230.0), changing tap ratio 0.0 => 1.0
% WARNING : Branch 8-13 connects two different voltage levels (115.0, 345.0), changing tap ratio 0.0 => 1.0
% WARNING : Branch 8-14 connects two different voltage levels (115.0, 161.0), changing tap ratio 0.0 => 1.0
% WARNING : Branch 8-15 connects two different voltage levels (115.0, 230.0), changing tap ratio 0.0 => 1.0
% WARNING : Branch 8-132 connects two different voltage levels (115.0, 161.0), changing tap ratio 0.0 => 1.0
% WARNING : Branch 10-13 connects two different voltage levels (230.0, 345.0), changing tap ratio 0.0 => 1.0
% WARNING : Branch 10-60 connects two different voltage levels (230.0, 115.0), changing tap ratio 0.0 => 1.0
% WARNING : Branch 11-46 connects two different voltage levels (230.0, 161.0), changing tap ratio 0.0 => 1.0
% WARNING : Branch 12-13 connects two different voltage levels (115.0, 345.0), changing tap ratio 0.0 => 1.0
% WARNING : Branch 12-14 connects two different voltage levels (115.0, 161.0), changing tap ratio 0.0 => 1.0
% WARNING : Branch 12-132 connects two different voltage levels (115.0, 161.0), changing tap ratio 0.0 => 1.0
% WARNING : Branch 13-15 connects two different voltage levels (345.0, 230.0), changing tap ratio 0.0 => 1.0
% WARNING : Branch 13-62 connects two different voltage levels (345.0, 230.0), changing tap ratio 0.0 => 1.0
% WARNING : Branch 15-60 connects two different voltage levels (230.0, 115.0), changing tap ratio 0.0 => 1.0
% WARNING : Branch 16-27 connects two different voltage levels (161.0, 345.0), changing tap ratio 0.0 => 1.0
% WARNING : Branch 16-126 connects two different voltage levels (161.0, 345.0), changing tap ratio 0.0 => 1.0
% WARNING : Branch 16-127 connects two different voltage levels (161.0, 345.0), changing tap ratio 0.0 => 1.0
% WARNING : Branch 17-127 connects two different voltage levels (161.0, 345.0), changing tap ratio 0.0 => 1.0
% WARNING : Branch 19-127 connects two different voltage levels (161.0, 345.0), changing tap ratio 0.0 => 1.0
% WARNING : Branch 21-127 connects two different voltage levels (161.0, 345.0), changing tap ratio 0.0 => 1.0
% WARNING : Branch 23-60 connects two different voltage levels (161.0, 115.0), changing tap ratio 0.0 => 1.0
% WARNING : Branch 27-31 connects two different voltage levels (345.0, 161.0), changing tap ratio 0.0 => 1.0
% WARNING : Branch 27-62 connects two different voltage levels (345.0, 230.0), changing tap ratio 0.0 => 1.0
% WARNING : Branch 40-81 connects two different voltage levels (161.0, 69.0), changing tap ratio 0.0 => 1.0
% WARNING : Branch 41-81 connects two different voltage levels (161.0, 69.0), changing tap ratio 0.0 => 1.0
% WARNING : Branch 43-124 connects two different voltage levels (161.0, 345.0), changing tap ratio 0.0 => 1.0
% WARNING : Branch 43-125 connects two different voltage levels (161.0, 345.0), changing tap ratio 0.0 => 1.0
% WARNING : Branch 49-87 connects two different voltage levels (161.0, 115.0), changing tap ratio 0.0 => 1.0
% WARNING : Branch 50-125 connects two different voltage levels (161.0, 345.0), changing tap ratio 0.0 => 1.0
% WARNING : Branch 60-62 connects two different voltage levels (115.0, 230.0), changing tap ratio 0.0 => 1.0
% WARNING : Branch 60-65 connects two different voltage levels (115.0, 345.0), changing tap ratio 0.0 => 1.0
% WARNING : Branch 60-126 connects two different voltage levels (115.0, 345.0), changing tap ratio 0.0 => 1.0
% WARNING : Branch 62-65 connects two different voltage levels (230.0, 345.0), changing tap ratio 0.0 => 1.0
% WARNING : Branch 62-126 connects two different voltage levels (230.0, 345.0), changing tap ratio 0.0 => 1.0
% WARNING : Branch 63-65 connects two different voltage levels (230.0, 345.0), changing tap ratio 0.0 => 1.0
% WARNING : Branch 86-87 connects two different voltage levels (161.0, 115.0), changing tap ratio 0.0 => 1.0
% WARNING : Branch 86-88 connects two different voltage levels (161.0, 69.0), changing tap ratio 0.0 => 1.0
% WARNING : Branch 88-96 connects two different voltage levels (69.0, 115.0), changing tap ratio 0.0 => 1.0
% WARNING : Branch 88-106 connects two different voltage levels (69.0, 161.0), changing tap ratio 0.0 => 1.0
% WARNING : Branch 103-124 connects two different voltage levels (161.0, 345.0), changing tap ratio 0.0 => 1.0
% WARNING : Branch 103-125 connects two different voltage levels (161.0, 345.0), changing tap ratio 0.0 => 1.0
% WARNING : Branch 123-125 connects two different voltage levels (161.0, 345.0), changing tap ratio 0.0 => 1.0
% INFO    : 
% INFO    : === Line Capacity Stat Model Notes ===
% INFO    : Updated Thermal Rating: on line 1-2 : Rate A, Rate B, Rate C , 3450.0, 0.0, 0.0 -> 613
% WARNING : Different basekv values on line 1-3, branch flow stat model using max current model : from_basekv=345.0 to_basekv=161.0 
% INFO    : Updated Thermal Rating: on transformer 1-3 : Rate A, Rate B, Rate C , 3709.0, 0.0, 0.0 -> 895
% WARNING : Updated Thermal Rating Stat Model was larger than UB Model: on 1-4 : 629 , 469
% INFO    : Updated Thermal Rating: on line 1-4 : Rate A, Rate B, Rate C , 3450.0, 0.0, 0.0 -> 470
% INFO    : Updated Thermal Rating: on line 1-5 : Rate A, Rate B, Rate C , 4002.0, 0.0, 0.0 -> 663
% WARNING : Missing data for branch flow stat model on line 1-6 using max current model : from_basekv=345.0 to_basekv=22.0 r=0.0 x=0.0133
% INFO    : Updated Thermal Rating: on transformer 1-6 : Rate B, Rate C , 0.0, 0.0 -> 2206
% INFO    : Updated Thermal Rating: on line 2-7 : Rate A, Rate B, Rate C , 3709.0, 0.0, 0.0 -> 605
% INFO    : Updated Thermal Rating: on line 2-13 : Rate A, Rate B, Rate C , 3450.0, 0.0, 0.0 -> 610
% WARNING : Updated Thermal Rating Stat Model was larger than UB Model: on 3-14 : 198 , 28
% INFO    : Updated Thermal Rating: on line 3-14 : Rate A, Rate B, Rate C , 9900.0, 0.0, 0.0 -> 29
% WARNING : Updated Thermal Rating Stat Model was larger than UB Model: on 3-50 : 200 , 168
% INFO    : Updated Thermal Rating: on line 3-50 : Rate A, Rate B, Rate C , 9900.0, 0.0, 0.0 -> 169
% WARNING : Updated Thermal Rating Stat Model was larger than UB Model: on 3-103 : 381 , 16
% INFO    : Updated Thermal Rating: on line 3-103 : Rate A, Rate B, Rate C , 9900.0, 0.0, 0.0 -> 17
% WARNING : Updated Thermal Rating Stat Model was larger than UB Model: on 3-123 : 229 , 17
% INFO    : Updated Thermal Rating: on line 3-123 : Rate A, Rate B, Rate C , 9900.0, 0.0, 0.0 -> 18
% WARNING : Different basekv values on line 3-124, branch flow stat model using max current model : from_basekv=161.0 to_basekv=345.0 
% INFO    : Updated Thermal Rating: on transformer 3-124 : Rate A, Rate B, Rate C , 9900.0, 0.0, 0.0 -> 46
% WARNING : Different basekv values on line 3-125, branch flow stat model using max current model : from_basekv=161.0 to_basekv=345.0 
% INFO    : Updated Thermal Rating: on transformer 3-125 : Rate A, Rate B, Rate C , 9900.0, 0.0, 0.0 -> 257
% WARNING : Updated Thermal Rating Stat Model was larger than UB Model: on 4-112 : 626 , 513
% INFO    : Updated Thermal Rating: on line 4-112 : Rate A, Rate B, Rate C , 3450.0, 0.0, 0.0 -> 514
% WARNING : Missing data for branch flow stat model on line 4-115 using max current model : from_basekv=345.0 to_basekv=161.0 r=0.0 x=0.0185
% INFO    : Updated Thermal Rating: on transformer 4-115 : Rate B, Rate C , 0.0, 0.0 -> 1586
% INFO    : Updated Thermal Rating: on line 4-119 : Rate A, Rate B, Rate C , 3450.0, 0.0, 0.0 -> 591
% INFO    : Updated Thermal Rating: on line 5-120 : Rate A, Rate B, Rate C , 4002.0, 0.0, 0.0 -> 644
% INFO    : Updated Thermal Rating: on line 5-129 : Rate A, Rate B, Rate C , 2474.0, 0.0, 0.0 -> 702
% WARNING : Missing data for branch flow stat model on line 5-131 using max current model : from_basekv=345.0 to_basekv=18.0 r=0.0 x=0.0127
% INFO    : Updated Thermal Rating: on transformer 5-131 : Rate B, Rate C , 0.0, 0.0 -> 2310
% WARNING : Different basekv values on line 7-8, branch flow stat model using max current model : from_basekv=345.0 to_basekv=115.0 
% INFO    : Updated Thermal Rating: on transformer 7-8 : Rate B, Rate C , 0.0, 0.0 -> 1552
% INFO    : Updated Thermal Rating: on line 7-9 : Rate A, Rate B, Rate C , 2474.0, 0.0, 0.0 -> 637
% WARNING : Different basekv values on line 8-10, branch flow stat model using max current model : from_basekv=115.0 to_basekv=230.0 
% INFO    : Updated Thermal Rating: on transformer 8-10 : Rate A, Rate B, Rate C , 9900.0, 0.0, 0.0 -> 26
% INFO    : Updated Thermal Rating: on line 8-12 : Rate A, Rate B, Rate C , 9900.0, 0.0, 0.0 -> 159
% WARNING : Different basekv values on line 8-13, branch flow stat model using max current model : from_basekv=115.0 to_basekv=345.0 
% INFO    : Updated Thermal Rating: on transformer 8-13 : Rate A, Rate B, Rate C , 9900.0, 0.0, 0.0 -> 60
% WARNING : Different basekv values on line 8-14, branch flow stat model using max current model : from_basekv=115.0 to_basekv=161.0 
% INFO    : Updated Thermal Rating: on transformer 8-14 : Rate A, Rate B, Rate C , 9900.0, 0.0, 0.0 -> 74
% WARNING : Different basekv values on line 8-15, branch flow stat model using max current model : from_basekv=115.0 to_basekv=230.0 
% INFO    : Updated Thermal Rating: on transformer 8-15 : Rate A, Rate B, Rate C , 9900.0, 0.0, 0.0 -> 17
% WARNING : Different basekv values on line 8-132, branch flow stat model using max current model : from_basekv=115.0 to_basekv=161.0 
% INFO    : Updated Thermal Rating: on transformer 8-132 : Rate A, Rate B, Rate C , 9900.0, 0.0, 0.0 -> 102
% INFO    : Updated Thermal Rating: on line 9-75 : Rate A, Rate B, Rate C , 2474.0, 0.0, 0.0 -> 684
% INFO    : Updated Thermal Rating: on line 10-11 : Rate A, Rate B, Rate C , 736.0, 0.0, 0.0 -> 366
% WARNING : Different basekv values on line 10-13, branch flow stat model using max current model : from_basekv=230.0 to_basekv=345.0 
% INFO    : Updated Thermal Rating: on transformer 10-13 : Rate A, Rate B, Rate C , 9900.0, 0.0, 0.0 -> 47
% WARNING : Updated Thermal Rating Stat Model was larger than UB Model: on 10-15 : 320 , 41
% INFO    : Updated Thermal Rating: on line 10-15 : Rate A, Rate B, Rate C , 9900.0, 0.0, 0.0 -> 42
% WARNING : Different basekv values on line 10-60, branch flow stat model using max current model : from_basekv=230.0 to_basekv=115.0 
% INFO    : Updated Thermal Rating: on transformer 10-60 : Rate A, Rate B, Rate C , 9900.0, 0.0, 0.0 -> 24
% WARNING : Updated Thermal Rating Stat Model was larger than UB Model: on 11-15 : 341 , 161
% INFO    : Updated Thermal Rating: on line 11-15 : Rate A, Rate B, Rate C , 9900.0, 0.0, 0.0 -> 162
% WARNING : Different basekv values on line 11-46, branch flow stat model using max current model : from_basekv=230.0 to_basekv=161.0 
% INFO    : Updated Thermal Rating: on transformer 11-46 : Rate A, Rate B, Rate C , 460.0, 0.0, 0.0 -> 238
% WARNING : Updated Thermal Rating Stat Model was larger than UB Model: on 11-58 : 341 , 270
% INFO    : Updated Thermal Rating: on line 11-58 : Rate A, Rate B, Rate C , 9900.0, 0.0, 0.0 -> 271
% INFO    : Updated Thermal Rating: on line 11-59 : Rate A, Rate B, Rate C , 9900.0, 0.0, 0.0 -> 350
% WARNING : Different basekv values on line 12-2, branch flow stat model using max current model : from_basekv=115.0 to_basekv=345.0 
% INFO    : Updated Thermal Rating: on transformer 12-2 : Rate B, Rate C , 0.0, 0.0 -> 778
% WARNING : Different basekv values on line 12-13, branch flow stat model using max current model : from_basekv=115.0 to_basekv=345.0 
% INFO    : Updated Thermal Rating: on transformer 12-13 : Rate A, Rate B, Rate C , 9900.0, 0.0, 0.0 -> 89
% WARNING : Different basekv values on line 12-14, branch flow stat model using max current model : from_basekv=115.0 to_basekv=161.0 
% INFO    : Updated Thermal Rating: on transformer 12-14 : Rate A, Rate B, Rate C , 9900.0, 0.0, 0.0 -> 45
% WARNING : Different basekv values on line 12-132, branch flow stat model using max current model : from_basekv=115.0 to_basekv=161.0 
% INFO    : Updated Thermal Rating: on transformer 12-132 : Rate A, Rate B, Rate C , 9900.0, 0.0, 0.0 -> 18
% WARNING : Different basekv values on line 13-15, branch flow stat model using max current model : from_basekv=345.0 to_basekv=230.0 
% INFO    : Updated Thermal Rating: on transformer 13-15 : Rate A, Rate B, Rate C , 9900.0, 0.0, 0.0 -> 91
% WARNING : Different basekv values on line 13-62, branch flow stat model using max current model : from_basekv=345.0 to_basekv=230.0 
% INFO    : Updated Thermal Rating: on transformer 13-62 : Rate A, Rate B, Rate C , 9900.0, 0.0, 0.0 -> 240
% INFO    : Updated Thermal Rating: on line 14-72 : Rate A, Rate B, Rate C , 9900.0, 0.0, 0.0 -> 264
% INFO    : Updated Thermal Rating: on line 14-113 : Rate A, Rate B, Rate C , 9900.0, 0.0, 0.0 -> 235
% INFO    : Updated Thermal Rating: on line 14-132 : Rate A, Rate B, Rate C , 9900.0, 0.0, 0.0 -> 244
% INFO    : Updated Thermal Rating: on line 15-58 : Rate A, Rate B, Rate C , 9900.0, 0.0, 0.0 -> 344
% WARNING : Different basekv values on line 15-60, branch flow stat model using max current model : from_basekv=230.0 to_basekv=115.0 
% INFO    : Updated Thermal Rating: on transformer 15-60 : Rate A, Rate B, Rate C , 9900.0, 0.0, 0.0 -> 18
% INFO    : Updated Thermal Rating: on line 15-62 : Rate A, Rate B, Rate C , 9900.0, 0.0, 0.0 -> 359
% WARNING : Updated Thermal Rating Stat Model was larger than UB Model: on 15-63 : 394 , 20
% INFO    : Updated Thermal Rating: on line 15-63 : Rate A, Rate B, Rate C , 9900.0, 0.0, 0.0 -> 21
% WARNING : Updated Thermal Rating Stat Model was larger than UB Model: on 16-17 : 150 , 18
% INFO    : Updated Thermal Rating: on line 16-17 : Rate A, Rate B, Rate C , 9900.0, 0.0, 0.0 -> 19
% INFO    : Updated Thermal Rating: on line 16-18 : Rate A, Rate B, Rate C , 269.0, 0.0, 0.0 -> 184
% WARNING : Different basekv values on line 16-27, branch flow stat model using max current model : from_basekv=161.0 to_basekv=345.0 
% INFO    : Updated Thermal Rating: on transformer 16-27 : Rate A, Rate B, Rate C , 9900.0, 0.0, 0.0 -> 33
% WARNING : Different basekv values on line 16-126, branch flow stat model using max current model : from_basekv=161.0 to_basekv=345.0 
% INFO    : Updated Thermal Rating: on transformer 16-126 : Rate A, Rate B, Rate C , 9900.0, 0.0, 0.0 -> 56
% WARNING : Different basekv values on line 16-127, branch flow stat model using max current model : from_basekv=161.0 to_basekv=345.0 
% INFO    : Updated Thermal Rating: on transformer 16-127 : Rate A, Rate B, Rate C , 9900.0, 0.0, 0.0 -> 55
% INFO    : Updated Thermal Rating: on line 17-18 : Rate A, Rate B, Rate C , 361.0, 0.0, 0.0 -> 209
% WARNING : Updated Thermal Rating Stat Model was larger than UB Model: on 17-19 : 175 , 36
% INFO    : Updated Thermal Rating: on line 17-19 : Rate A, Rate B, Rate C , 9900.0, 0.0, 0.0 -> 37
% WARNING : Updated Thermal Rating Stat Model was larger than UB Model: on 17-21 : 227 , 108
% INFO    : Updated Thermal Rating: on line 17-21 : Rate A, Rate B, Rate C , 9900.0, 0.0, 0.0 -> 109
% WARNING : Different basekv values on line 17-127, branch flow stat model using max current model : from_basekv=161.0 to_basekv=345.0 
% INFO    : Updated Thermal Rating: on transformer 17-127 : Rate A, Rate B, Rate C , 9900.0, 0.0, 0.0 -> 111
% INFO    : Updated Thermal Rating: on line 18-30 : Rate A, Rate B, Rate C , 362.0, 0.0, 0.0 -> 220
% INFO    : Updated Thermal Rating: on line 18-32 : Rate A, Rate B, Rate C , 361.0, 0.0, 0.0 -> 219
% WARNING : Missing data for branch flow stat model on line 18-37 using max current model : from_basekv=161.0 to_basekv=345.0 r=0.0 x=0.0456
% INFO    : Updated Thermal Rating: on transformer 18-37 : Rate B, Rate C , 0.0, 0.0 -> 644
% WARNING : Updated Thermal Rating Stat Model was larger than UB Model: on 19-21 : 212 , 15
% INFO    : Updated Thermal Rating: on line 19-21 : Rate A, Rate B, Rate C , 9900.0, 0.0, 0.0 -> 16
% INFO    : Updated Thermal Rating: on line 19-38 : Rate A, Rate B, Rate C , 354.0, 0.0, 0.0 -> 219
% WARNING : Updated Thermal Rating Stat Model was larger than UB Model: on 19-43 : 198 , 111
% INFO    : Updated Thermal Rating: on line 19-43 : Rate A, Rate B, Rate C , 9900.0, 0.0, 0.0 -> 112
% WARNING : Different basekv values on line 19-127, branch flow stat model using max current model : from_basekv=161.0 to_basekv=345.0 
% INFO    : Updated Thermal Rating: on transformer 19-127 : Rate A, Rate B, Rate C , 9900.0, 0.0, 0.0 -> 43
% WARNING : Missing data for branch flow stat model on line 20-53 using max current model : from_basekv=69.0 to_basekv=161.0 r=0.0 x=0.114
% INFO    : Updated Thermal Rating: on transformer 20-53 : Rate B, Rate C , 0.0, 0.0 -> 258
% INFO    : Updated Thermal Rating: on line 20-157 : Rate B, Rate C , 0.0, 0.0 -> 66
% WARNING : Updated Thermal Rating Stat Model was larger than UB Model: on 21-22 : 218 , 176
% INFO    : Updated Thermal Rating: on line 21-22 : Rate A, Rate B, Rate C , 387.0, 0.0, 0.0 -> 177
% WARNING : Different basekv values on line 21-127, branch flow stat model using max current model : from_basekv=161.0 to_basekv=345.0 
% INFO    : Updated Thermal Rating: on transformer 21-127 : Rate A, Rate B, Rate C , 9900.0, 0.0, 0.0 -> 46
% INFO    : Updated Thermal Rating: on line 22-38 : Rate A, Rate B, Rate C , 362.0, 0.0, 0.0 -> 190
% WARNING : Missing data for branch flow stat model on line 22-39 using max current model : from_basekv=161.0 to_basekv=345.0 r=0.0 x=0.0493
% INFO    : Updated Thermal Rating: on transformer 22-39 : Rate B, Rate C , 0.0, 0.0 -> 595
% INFO    : Updated Thermal Rating: on line 22-40 : Rate A, Rate B, Rate C , 362.0, 0.0, 0.0 -> 189
% INFO    : Updated Thermal Rating: on line 22-41 : Rate A, Rate B, Rate C , 351.0, 0.0, 0.0 -> 213
% INFO    : Updated Thermal Rating: on line 23-24 : Rate A, Rate B, Rate C , 361.0, 0.0, 0.0 -> 167
% WARNING : Different basekv values on line 23-60, branch flow stat model using max current model : from_basekv=161.0 to_basekv=115.0 
% INFO    : Updated Thermal Rating: on transformer 23-60 : Rate A, Rate B, Rate C , 9900.0, 0.0, 0.0 -> 93
% WARNING : Missing data for branch flow stat model on line 24-25 using max current model : from_basekv=161.0 to_basekv=345.0 r=0.0 x=0.034
% INFO    : Updated Thermal Rating: on transformer 24-25 : Rate B, Rate C , 0.0, 0.0 -> 863
% INFO    : Updated Thermal Rating: on line 24-28 : Rate A, Rate B, Rate C , 361.0, 0.0, 0.0 -> 166
% INFO    : Updated Thermal Rating: on line 24-45 : Rate A, Rate B, Rate C , 359.0, 0.0, 0.0 -> 220
% WARNING : Updated Thermal Rating Stat Model was larger than UB Model: on 25-26 : 634 , 500
% INFO    : Updated Thermal Rating: on line 25-26 : Rate A, Rate B, Rate C , 4105.0, 0.0, 0.0 -> 501
% INFO    : Updated Thermal Rating: on line 25-27 : Rate A, Rate B, Rate C , 2484.0, 0.0, 0.0 -> 618
% WARNING : Updated Thermal Rating Stat Model was larger than UB Model: on 26-74 : 627 , 480
% INFO    : Updated Thermal Rating: on line 26-74 : Rate A, Rate B, Rate C , 2484.0, 0.0, 0.0 -> 481
% INFO    : Updated Thermal Rating: on line 26-75 : Rate A, Rate B, Rate C , 3709.0, 0.0, 0.0 -> 661
% WARNING : Missing data for branch flow stat model on line 26-76 using max current model : from_basekv=345.0 to_basekv=24.0 r=0.0 x=0.0082
% INFO    : Updated Thermal Rating: on transformer 26-76 : Rate B, Rate C , 0.0, 0.0 -> 3578
% WARNING : Different basekv values on line 27-31, branch flow stat model using max current model : from_basekv=345.0 to_basekv=161.0 
% INFO    : Updated Thermal Rating: on transformer 27-31 : Rate A, Rate B, Rate C , 9900.0, 0.0, 0.0 -> 230
% WARNING : Different basekv values on line 27-62, branch flow stat model using max current model : from_basekv=345.0 to_basekv=230.0 
% INFO    : Updated Thermal Rating: on transformer 27-62 : Rate A, Rate B, Rate C , 9900.0, 0.0, 0.0 -> 51
% WARNING : Updated Thermal Rating Stat Model was larger than UB Model: on 27-65 : 1013 , 106
% INFO    : Updated Thermal Rating: on line 27-65 : Rate A, Rate B, Rate C , 9900.0, 0.0, 0.0 -> 107
% WARNING : Updated Thermal Rating Stat Model was larger than UB Model: on 27-125 : 1351 , 17
% INFO    : Updated Thermal Rating: on line 27-125 : Rate A, Rate B, Rate C , 9900.0, 0.0, 0.0 -> 18
% INFO    : Updated Thermal Rating: on line 27-126 : Rate A, Rate B, Rate C , 9900.0, 0.0, 0.0 -> 646
% WARNING : Updated Thermal Rating Stat Model was larger than UB Model: on 27-127 : 623 , 20
% INFO    : Updated Thermal Rating: on line 27-127 : Rate A, Rate B, Rate C , 9900.0, 0.0, 0.0 -> 21
% INFO    : Updated Thermal Rating: on line 28-29 : Rate A, Rate B, Rate C , 269.0, 0.0, 0.0 -> 193
% WARNING : Updated Thermal Rating Stat Model was larger than UB Model: on 29-30 : 191 , 189
% INFO    : Updated Thermal Rating: on line 29-30 : Rate B, Rate C , 0.0, 0.0 -> 190
% INFO    : Updated Thermal Rating: on line 29-31 : Rate A, Rate B, Rate C , 269.0, 0.0, 0.0 -> 194
% INFO    : Updated Thermal Rating: on line 30-32 : Rate A, Rate B, Rate C , 325.0, 0.0, 0.0 -> 194
% INFO    : Updated Thermal Rating: on line 32-33 : Rate A, Rate B, Rate C , 325.0, 0.0, 0.0 -> 191
% INFO    : Updated Thermal Rating: on line 33-34 : Rate B, Rate C , 0.0, 0.0 -> 195
% INFO    : Updated Thermal Rating: on line 33-35 : Rate A, Rate B, Rate C , 387.0, 0.0, 0.0 -> 214
% INFO    : Updated Thermal Rating: on line 33-36 : Rate A, Rate B, Rate C , 349.0, 0.0, 0.0 -> 220
% WARNING : Updated Thermal Rating Stat Model was larger than UB Model: on 34-40 : 188 , 187
% INFO    : Updated Thermal Rating: on line 34-40 : Rate A, Rate B, Rate C , 325.0, 0.0, 0.0 -> 188
% INFO    : Updated Thermal Rating: on line 34-77 : Rate A, Rate B, Rate C , 269.0, 0.0, 0.0 -> 189
% INFO    : Updated Thermal Rating: on line 35-40 : Rate B, Rate C , 0.0, 0.0 -> 213
% INFO    : Updated Thermal Rating: on line 36-67 : Rate A, Rate B, Rate C , 349.0, 0.0, 0.0 -> 220
% INFO    : Updated Thermal Rating: on line 37-39 : Rate A, Rate B, Rate C , 1656.0, 0.0, 0.0 -> 630
% INFO    : Updated Thermal Rating: on line 37-126 : Rate A, Rate B, Rate C , 2484.0, 0.0, 0.0 -> 624
% INFO    : Updated Thermal Rating: on line 37-127 : Rate A, Rate B, Rate C , 3312.0, 0.0, 0.0 -> 641
% INFO    : Updated Thermal Rating: on line 39-42 : Rate A, Rate B, Rate C , 1656.0, 0.0, 0.0 -> 617
% WARNING : Different basekv values on line 40-81, branch flow stat model using max current model : from_basekv=161.0 to_basekv=69.0 
% INFO    : Updated Thermal Rating: on transformer 40-81 : Rate B, Rate C , 0.0, 0.0 -> 85
% INFO    : Updated Thermal Rating: on line 40-82 : Rate A, Rate B, Rate C , 351.0, 0.0, 0.0 -> 209
% WARNING : Different basekv values on line 41-81, branch flow stat model using max current model : from_basekv=161.0 to_basekv=69.0 
% INFO    : Updated Thermal Rating: on transformer 41-81 : Rate A, Rate B, Rate C , 81.0, 0.0, 0.0 -> 79
% INFO    : Updated Thermal Rating: on line 41-83 : Rate A, Rate B, Rate C , 9900.0, 0.0, 0.0 -> 213
% INFO    : Updated Thermal Rating: on line 41-84 : Rate A, Rate B, Rate C , 406.0, 0.0, 0.0 -> 301
% INFO    : Updated Thermal Rating: on line 42-109 : Rate A, Rate B, Rate C , 3795.0, 0.0, 0.0 -> 648
% INFO    : Updated Thermal Rating: on line 43-44 : Rate A, Rate B, Rate C , 269.0, 0.0, 0.0 -> 193
% WARNING : Updated Thermal Rating Stat Model was larger than UB Model: on 43-103 : 219 , 169
% INFO    : Updated Thermal Rating: on line 43-103 : Rate A, Rate B, Rate C , 9900.0, 0.0, 0.0 -> 170
% WARNING : Different basekv values on line 43-124, branch flow stat model using max current model : from_basekv=161.0 to_basekv=345.0 
...